2025-12-02T12:39:40,694  INFO Config:468 setting context to [file:/C:/Users/VWAUCCY/dev/msf/projects/Dissertation/matsim-libs/contribs/exmas/]
2025-12-02T12:39:40,774  INFO Version:18 HV000001: Hibernate Validator 9.1.0.Final
2025-12-02T12:39:41,000  INFO MatsimXmlParser:172 starting to parse xml from url jar:file:/C:/Users/VWAUCCY/.m2/repository/org/matsim/matsim-examples/2026.0-SNAPSHOT/matsim-examples-2026.0-SNAPSHOT.jar!/test/scenarios/dvrp-grid/one_shared_taxi_config.xml ...
2025-12-02T12:39:41,062  INFO ConfigReader:105 using config_v2-reader
2025-12-02T12:39:41,062  INFO MatsimXmlParser:299 Trying to load http://www.matsim.org/files/dtd/config_v2.dtd. In some cases (e.g. network interface up but no connection), this may take a while.
2025-12-02T12:39:41,209  WARN ScoringConfigGroup:205 activityType_0 is deprecated config syntax; please use the more modern hierarchical format; your output_config.xml will be in the correct version; the old version will fail eventually, since we want to reduce the workload on this backwards compatibility (look into PlanCalcScoreConfigGroup or PlanCalcRouteConfigGroup if you want to know what we mean).
2025-12-02T12:39:41,210  INFO ScoringConfigGroup$ScoringParameterSet:1535 activity parameters for activity type dummy were just overwritten.
2025-12-02T12:39:41,210  WARN ScoringConfigGroup:219 activityTypicalDuration_0 is deprecated config syntax; please use the more modern hierarchical format; your output_config.xml will be in the correct version; the old version will fail eventually, since we want to reduce the workload on this backwards compatibility (look into PlanCalcScoreConfigGroup or PlanCalcRouteConfigGroup if you want to know what we mean).
2025-12-02T12:39:41,212  WARN ScoringConfigGroup:254 traveling_drt is deprecated config syntax; please use the more modern hierarchical format; your output_config.xml will be in the correct version; the old version will fail eventually, since we want to reduce the workload on this backwards compatibility (look into PlanCalcScoreConfigGroup or PlanCalcRouteConfigGroup if you want to know what we mean).
2025-12-02T12:39:41,218  INFO Config:468 setting context to [jar:file:/C:/Users/VWAUCCY/.m2/repository/org/matsim/matsim-examples/2026.0-SNAPSHOT/matsim-examples-2026.0-SNAPSHOT.jar!/test/scenarios/dvrp-grid/one_shared_taxi_config.xml]
2025-12-02T12:39:41,219  WARN Config:277 Module "otfvis" is removed manually from config
2025-12-02T12:39:41,265  INFO ScenarioLoaderImpl:135 loading network from jar:file:/C:/Users/VWAUCCY/.m2/repository/org/matsim/matsim-examples/2026.0-SNAPSHOT/matsim-examples-2026.0-SNAPSHOT.jar!/test/scenarios/dvrp-grid/grid_network.xml
2025-12-02T12:39:41,267  INFO MatsimXmlParser:172 starting to parse xml from url jar:file:/C:/Users/VWAUCCY/.m2/repository/org/matsim/matsim-examples/2026.0-SNAPSHOT/matsim-examples-2026.0-SNAPSHOT.jar!/test/scenarios/dvrp-grid/grid_network.xml ...
2025-12-02T12:39:41,268  INFO MatsimNetworkReader:117 using network_v1-reader.
2025-12-02T12:39:41,269  INFO MatsimXmlParser:299 Trying to load http://www.matsim.org/files/dtd/network_v1.dtd. In some cases (e.g. network interface up but no connection), this may take a while.
2025-12-02T12:39:41,306  INFO NetworkImpl:164  node # 1
2025-12-02T12:39:41,307  INFO NetworkImpl:164  node # 4
2025-12-02T12:39:41,309  INFO NetworkImpl:164  node # 16
2025-12-02T12:39:41,331  INFO NetworkImpl:160  link # 1
2025-12-02T12:39:41,331  INFO NetworkImpl:160  link # 4
2025-12-02T12:39:41,332  INFO NetworkImpl:160  link # 16
2025-12-02T12:39:41,336  INFO NetworkImpl:160  link # 64
2025-12-02T12:39:41,343  INFO ScenarioLoaderImpl:172 no facilities file set in config, therefore not loading any facilities.  This is not a problem except if you are using facilities
2025-12-02T12:39:41,344  INFO ScenarioLoaderImpl:188 no facility-attributes file set in config, not loading any facility attributes
2025-12-02T12:39:41,344  INFO ScenarioLoaderImpl:196 loading population from jar:file:/C:/Users/VWAUCCY/.m2/repository/org/matsim/matsim-examples/2026.0-SNAPSHOT/matsim-examples-2026.0-SNAPSHOT.jar!/test/scenarios/dvrp-grid/one_shared_taxi_population.xml
2025-12-02T12:39:41,350  INFO MatsimXmlParser:172 starting to parse xml from url jar:file:/C:/Users/VWAUCCY/.m2/repository/org/matsim/matsim-examples/2026.0-SNAPSHOT/matsim-examples-2026.0-SNAPSHOT.jar!/test/scenarios/dvrp-grid/one_shared_taxi_population.xml ...
2025-12-02T12:39:41,351  INFO PopulationReader:142 using population_v5-reader.
2025-12-02T12:39:41,351  INFO MatsimXmlParser:299 Trying to load http://www.matsim.org/files/dtd/population_v5.dtd. In some cases (e.g. network interface up but no connection), this may take a while.
2025-12-02T12:39:41,383  INFO PopulationImpl:111  person # 1
2025-12-02T12:39:41,384  INFO PopulationImpl:111  person # 4
2025-12-02T12:39:41,385  INFO PopulationUtils:1155  person # 10
2025-12-02T12:39:41,385  INFO ScenarioLoaderImpl:244 no person-attributes file set in config, not loading any person attributes
2025-12-02T12:39:41,385  INFO ScenarioLoaderImpl:258 no households file set in config, not loading households
2025-12-02T12:39:41,385  INFO ScenarioLoaderImpl:292 no transit schedule file set in config, not loading any transit schedule
2025-12-02T12:39:41,385  INFO ScenarioLoaderImpl:333 no transit vehicles file set in config, not loading any transit vehicles

=== SCORING PARAMETERS ===
Marginal utility of money: 1.0

Mode: car
  Constant: 0.0
  Daily monetary constant: 0.0
  Daily utility constant: 0.0
  Marginal utility of traveling (per hour): -6.0
  Marginal utility of distance: 0.0
  Monetary distance rate (cost per meter): 0.0

Mode: drt
  Constant: 0.0
  Daily monetary constant: 0.0
  Daily utility constant: 0.0
  Marginal utility of traveling (per hour): -6.0
  Marginal utility of distance: 0.0
  Monetary distance rate (cost per meter): 0.0

Mode: pt
  Constant: 0.0
  Daily monetary constant: 0.0
  Daily utility constant: 0.0
  Marginal utility of traveling (per hour): -6.0
  Marginal utility of distance: 0.0
  Monetary distance rate (cost per meter): 0.0

Mode: walk
  Constant: 0.0
  Daily monetary constant: 0.0
  Daily utility constant: 0.0
  Marginal utility of traveling (per hour): -6.0
  Marginal utility of distance: 0.0
  Monetary distance rate (cost per meter): 0.0

Mode: bike
  Constant: 0.0
  Daily monetary constant: 0.0
  Daily utility constant: 0.0
  Marginal utility of traveling (per hour): -6.0
  Marginal utility of distance: 0.0
  Monetary distance rate (cost per meter): 0.0
2025-12-02T12:39:41,439  WARN DrtConfigGroup:400 qsim.endTime should be specified and qsim.simEndtimeInterpretation should be 'onlyUseEndtime' if postponed request rejection is allowed. Otherwise, rejected passengers (who are stuck endlessly waiting for a DRT vehicle) will prevent QSim from stopping. Keep also in mind that not setting an end time may result in agents attempting to travel without vehicles being available.
2025-12-02T12:39:41,439  WARN DrtConfigGroup:424 Consider increasing global.numberOfThreads to at least the value of drt.numberOfThreads in order to speed up the DRT route update during the replanning phase.
2025-12-02T12:39:41,440  INFO ScoringConfigGroup$ScoringParameterSet:1622 NO OPENING OR CLOSING TIMES DEFINED!

There is no activity type that has an opening *and* closing time (or opening time and late penalty) defined.
This usually means that the activity chains can be shifted by an arbitrary
number of hours without having an effect on the score of the plans, and thus
resulting in wrong results / traffic patterns.
If you are using MATSim without time adaptation, you can ignore this warning.


2025-12-02T12:39:41,440  INFO VspConfigConsistencyCheckerImpl:62 NOT running vsp config consistency check because vsp defaults checking level is set to IGNORE
2025-12-02T12:39:43,355  INFO DvrpGlobalRoutingNetworkProvider:66 DVRP global routing network unfiltered: #nodes=62 #links:170
2025-12-02T12:39:43,358  INFO NetworkImpl:164  node # 1
2025-12-02T12:39:43,358  INFO NetworkImpl:164  node # 4
2025-12-02T12:39:43,358  INFO NetworkImpl:164  node # 16
2025-12-02T12:39:43,360  INFO NetworkImpl:160  link # 1
2025-12-02T12:39:43,360  INFO NetworkImpl:160  link # 4
2025-12-02T12:39:43,361  INFO NetworkImpl:160  link # 16
2025-12-02T12:39:43,362  INFO NetworkImpl:160  link # 64
2025-12-02T12:39:43,364  INFO DvrpGlobalRoutingNetworkProvider:66 DVRP global routing network filtered: #nodes=62 #links:170
2025-12-02T12:39:43,365  INFO SimStepParallelEventsManagerImpl:83 number of threads=1
2025-12-02T12:39:43,370  INFO EventsManagerImpl:139 === Logging of event-handlers skipped ===
2025-12-02T12:39:43,370  INFO EventsManagerImpl:140 To enable debug output, set an environment variable i.e. export LOG_LEVEL='debug', or set log.setLogLevel(Level.DEBUG) in your run class.
2025-12-02T12:39:43,371  INFO EventsManagerImpl:210     > org.matsim.api.core.v01.events.LinkEnterEvent
2025-12-02T12:39:43,371  INFO EventsManagerImpl:210     > org.matsim.api.core.v01.events.LinkLeaveEvent
2025-12-02T12:39:43,372  INFO EventsManagerImpl:210     > org.matsim.api.core.v01.events.VehicleEntersTrafficEvent
2025-12-02T12:39:43,372  INFO EventsManagerImpl:210     > org.matsim.api.core.v01.events.VehicleLeavesTrafficEvent
2025-12-02T12:39:43,372  INFO EventsManagerImpl:210     > org.matsim.core.api.experimental.events.VehicleArrivesAtFacilityEvent
2025-12-02T12:39:43,373  INFO EventsManagerImpl:210     > org.matsim.api.core.v01.events.VehicleAbortsEvent
2025-12-02T12:39:43,373  INFO EventsManagerImpl:139 === Logging of event-handlers skipped ===
2025-12-02T12:39:43,373  INFO EventsManagerImpl:140 To enable debug output, set an environment variable i.e. export LOG_LEVEL='debug', or set log.setLogLevel(Level.DEBUG) in your run class.
2025-12-02T12:39:43,374  INFO EventsManagerImpl:210     > org.matsim.api.core.v01.events.LinkEnterEvent
2025-12-02T12:39:43,374  INFO EventsManagerImpl:210     > org.matsim.api.core.v01.events.LinkLeaveEvent
2025-12-02T12:39:43,374  INFO EventsManagerImpl:210     > org.matsim.api.core.v01.events.VehicleEntersTrafficEvent
2025-12-02T12:39:43,374  INFO EventsManagerImpl:210     > org.matsim.api.core.v01.events.VehicleLeavesTrafficEvent
2025-12-02T12:39:43,374  INFO EventsManagerImpl:210     > org.matsim.core.api.experimental.events.VehicleArrivesAtFacilityEvent
2025-12-02T12:39:43,374  INFO EventsManagerImpl:210     > org.matsim.api.core.v01.events.VehicleAbortsEvent
2025-12-02T12:39:43,391  INFO MatsimXmlParser:172 starting to parse xml from url jar:file:/C:/Users/VWAUCCY/.m2/repository/org/matsim/matsim-examples/2026.0-SNAPSHOT/matsim-examples-2026.0-SNAPSHOT.jar!/test/scenarios/dvrp-grid/one_shared_taxi_vehicles.xml ...
2025-12-02T12:39:43,392  INFO MatsimXmlParser:299 Trying to load http://matsim.org/files/dtd/dvrp_vehicles_v1.dtd. In some cases (e.g. network interface up but no connection), this may take a while.
2025-12-02T12:39:43,439  INFO SpeedyALTData:51 find dead ends...
2025-12-02T12:39:43,441  INFO SpeedyALTData:132 calculate landmarks...
2025-12-02T12:39:43,472  INFO SpeedyALTData:173 calculate min travelcost...
2025-12-02T12:39:43,539  INFO StrategyManager:79 global innovation switch off after iteration: 0
2025-12-02T12:39:43,540  INFO GenericStrategyManagerImpl:370 setting PlanSelectorForRemoval to class org.matsim.core.replanning.selectors.WorstPlanForRemovalSelector
2025-12-02T12:39:43,549  INFO EventsManagerImpl:139 === Logging of event-handlers skipped ===
2025-12-02T12:39:43,549  INFO EventsManagerImpl:140 To enable debug output, set an environment variable i.e. export LOG_LEVEL='debug', or set log.setLogLevel(Level.DEBUG) in your run class.
2025-12-02T12:39:43,550  INFO EventsManagerImpl:210     > org.matsim.api.core.v01.events.Event
2025-12-02T12:39:43,550  INFO EventsManagerImpl:139 === Logging of event-handlers skipped ===
2025-12-02T12:39:43,550  INFO EventsManagerImpl:140 To enable debug output, set an environment variable i.e. export LOG_LEVEL='debug', or set log.setLogLevel(Level.DEBUG) in your run class.
2025-12-02T12:39:43,550  INFO EventsManagerImpl:210     > org.matsim.api.core.v01.events.Event
2025-12-02T12:39:43,569  INFO CalcLinkStats:151  resetting `count' to zero.  This info is here since we want to check when this is happening during normal simulation runs.  kai, jan'11
2025-12-02T12:39:43,570  INFO EventsManagerImpl:139 === Logging of event-handlers skipped ===
2025-12-02T12:39:43,570  INFO EventsManagerImpl:140 To enable debug output, set an environment variable i.e. export LOG_LEVEL='debug', or set log.setLogLevel(Level.DEBUG) in your run class.
2025-12-02T12:39:43,570  INFO EventsManagerImpl:210     > org.matsim.api.core.v01.events.LinkLeaveEvent
2025-12-02T12:39:43,570  INFO EventsManagerImpl:210     > org.matsim.api.core.v01.events.VehicleEntersTrafficEvent
2025-12-02T12:39:43,571  INFO EventsManagerImpl:139 === Logging of event-handlers skipped ===
2025-12-02T12:39:43,571  INFO EventsManagerImpl:140 To enable debug output, set an environment variable i.e. export LOG_LEVEL='debug', or set log.setLogLevel(Level.DEBUG) in your run class.
2025-12-02T12:39:43,571  INFO EventsManagerImpl:210     > org.matsim.api.core.v01.events.LinkLeaveEvent
2025-12-02T12:39:43,571  INFO EventsManagerImpl:210     > org.matsim.api.core.v01.events.VehicleEntersTrafficEvent
2025-12-02T12:39:43,585  INFO AbstractController:57 Used Controler-Class: org.matsim.core.controler.NewControler
2025-12-02T12:39:43,586  INFO Config:428 ConfigConsistencyChecker with runtime type=class org.matsim.core.config.consistency.ConfigConsistencyCheckerImpl was already added; not adding it a second time
2025-12-02T12:39:43,587  INFO EventsManagerImpl:139 === Logging of event-handlers skipped ===
2025-12-02T12:39:43,587  INFO EventsManagerImpl:140 To enable debug output, set an environment variable i.e. export LOG_LEVEL='debug', or set log.setLogLevel(Level.DEBUG) in your run class.
2025-12-02T12:39:43,587  INFO EventsManagerImpl:210     > org.matsim.contrib.dvrp.vrpagent.TaskStartedEvent
2025-12-02T12:39:43,588  INFO EventsManagerImpl:210     > org.matsim.contrib.dvrp.vrpagent.TaskEndedEvent
2025-12-02T12:39:43,588  INFO EventsManagerImpl:139 === Logging of event-handlers skipped ===
2025-12-02T12:39:43,588  INFO EventsManagerImpl:140 To enable debug output, set an environment variable i.e. export LOG_LEVEL='debug', or set log.setLogLevel(Level.DEBUG) in your run class.
2025-12-02T12:39:43,588  INFO EventsManagerImpl:210     > org.matsim.contrib.dvrp.vrpagent.TaskStartedEvent
2025-12-02T12:39:43,588  INFO EventsManagerImpl:210     > org.matsim.contrib.dvrp.vrpagent.TaskEndedEvent
2025-12-02T12:39:43,589  INFO EventsManagerImpl:139 === Logging of event-handlers skipped ===
2025-12-02T12:39:43,589  INFO EventsManagerImpl:140 To enable debug output, set an environment variable i.e. export LOG_LEVEL='debug', or set log.setLogLevel(Level.DEBUG) in your run class.
2025-12-02T12:39:43,590  INFO EventsManagerImpl:210     > org.matsim.contrib.dvrp.passenger.PassengerPickedUpEvent
2025-12-02T12:39:43,590  INFO EventsManagerImpl:210     > org.matsim.api.core.v01.events.LinkEnterEvent
2025-12-02T12:39:43,591  INFO EventsManagerImpl:210     > org.matsim.contrib.dvrp.passenger.PassengerDroppedOffEvent
2025-12-02T12:39:43,592  INFO EventsManagerImpl:210     > org.matsim.core.api.experimental.events.TeleportationArrivalEvent
2025-12-02T12:39:43,592  INFO EventsManagerImpl:139 === Logging of event-handlers skipped ===
2025-12-02T12:39:43,592  INFO EventsManagerImpl:140 To enable debug output, set an environment variable i.e. export LOG_LEVEL='debug', or set log.setLogLevel(Level.DEBUG) in your run class.
2025-12-02T12:39:43,592  INFO EventsManagerImpl:210     > org.matsim.contrib.dvrp.passenger.PassengerPickedUpEvent
2025-12-02T12:39:43,592  INFO EventsManagerImpl:210     > org.matsim.api.core.v01.events.LinkEnterEvent
2025-12-02T12:39:43,593  INFO EventsManagerImpl:210     > org.matsim.contrib.dvrp.passenger.PassengerDroppedOffEvent
2025-12-02T12:39:43,593  INFO EventsManagerImpl:210     > org.matsim.core.api.experimental.events.TeleportationArrivalEvent
2025-12-02T12:39:43,593  INFO EventsManagerImpl:139 === Logging of event-handlers skipped ===
2025-12-02T12:39:43,593  INFO EventsManagerImpl:140 To enable debug output, set an environment variable i.e. export LOG_LEVEL='debug', or set log.setLogLevel(Level.DEBUG) in your run class.
2025-12-02T12:39:43,595  INFO EventsManagerImpl:210     > org.matsim.contrib.dvrp.passenger.PassengerRequestRejectedEvent
2025-12-02T12:39:43,596  INFO EventsManagerImpl:210     > org.matsim.contrib.dvrp.passenger.PassengerRequestScheduledEvent
2025-12-02T12:39:43,597  INFO EventsManagerImpl:210     > org.matsim.contrib.drt.passenger.events.DrtRequestSubmittedEvent
2025-12-02T12:39:43,598  INFO EventsManagerImpl:210     > org.matsim.contrib.dvrp.passenger.PassengerWaitingEvent
2025-12-02T12:39:43,598  INFO EventsManagerImpl:210     > org.matsim.contrib.dvrp.passenger.PassengerPickedUpEvent
2025-12-02T12:39:43,598  INFO EventsManagerImpl:210     > org.matsim.contrib.dvrp.passenger.PassengerDroppedOffEvent
2025-12-02T12:39:43,599  INFO EventsManagerImpl:210     > org.matsim.api.core.v01.events.PersonMoneyEvent
2025-12-02T12:39:43,599  INFO EventsManagerImpl:210     > org.matsim.api.core.v01.events.PersonDepartureEvent
2025-12-02T12:39:43,599  INFO EventsManagerImpl:139 === Logging of event-handlers skipped ===
2025-12-02T12:39:43,599  INFO EventsManagerImpl:140 To enable debug output, set an environment variable i.e. export LOG_LEVEL='debug', or set log.setLogLevel(Level.DEBUG) in your run class.
2025-12-02T12:39:43,599  INFO EventsManagerImpl:210     > org.matsim.contrib.dvrp.passenger.PassengerRequestRejectedEvent
2025-12-02T12:39:43,600  INFO EventsManagerImpl:210     > org.matsim.contrib.dvrp.passenger.PassengerRequestScheduledEvent
2025-12-02T12:39:43,600  INFO EventsManagerImpl:210     > org.matsim.contrib.drt.passenger.events.DrtRequestSubmittedEvent
2025-12-02T12:39:43,600  INFO EventsManagerImpl:210     > org.matsim.contrib.dvrp.passenger.PassengerWaitingEvent
2025-12-02T12:39:43,600  INFO EventsManagerImpl:210     > org.matsim.contrib.dvrp.passenger.PassengerPickedUpEvent
2025-12-02T12:39:43,600  INFO EventsManagerImpl:210     > org.matsim.contrib.dvrp.passenger.PassengerDroppedOffEvent
2025-12-02T12:39:43,601  INFO EventsManagerImpl:210     > org.matsim.api.core.v01.events.PersonMoneyEvent
2025-12-02T12:39:43,601  INFO EventsManagerImpl:210     > org.matsim.api.core.v01.events.PersonDepartureEvent
2025-12-02T12:39:43,602  INFO EventsManagerImpl:139 === Logging of event-handlers skipped ===
2025-12-02T12:39:43,602  INFO EventsManagerImpl:140 To enable debug output, set an environment variable i.e. export LOG_LEVEL='debug', or set log.setLogLevel(Level.DEBUG) in your run class.
2025-12-02T12:39:43,602  INFO EventsManagerImpl:210     > org.matsim.api.core.v01.events.PersonEntersVehicleEvent
2025-12-02T12:39:43,602  INFO EventsManagerImpl:210     > org.matsim.api.core.v01.events.PersonLeavesVehicleEvent
2025-12-02T12:39:43,602  INFO EventsManagerImpl:210     > org.matsim.contrib.dvrp.vrpagent.TaskStartedEvent
2025-12-02T12:39:43,602  INFO EventsManagerImpl:210     > org.matsim.contrib.dvrp.vrpagent.TaskEndedEvent
2025-12-02T12:39:43,603  INFO EventsManagerImpl:139 === Logging of event-handlers skipped ===
2025-12-02T12:39:43,603  INFO EventsManagerImpl:140 To enable debug output, set an environment variable i.e. export LOG_LEVEL='debug', or set log.setLogLevel(Level.DEBUG) in your run class.
2025-12-02T12:39:43,603  INFO EventsManagerImpl:210     > org.matsim.api.core.v01.events.PersonEntersVehicleEvent
2025-12-02T12:39:43,603  INFO EventsManagerImpl:210     > org.matsim.api.core.v01.events.PersonLeavesVehicleEvent
2025-12-02T12:39:43,603  INFO EventsManagerImpl:210     > org.matsim.contrib.dvrp.vrpagent.TaskStartedEvent
2025-12-02T12:39:43,603  INFO EventsManagerImpl:210     > org.matsim.contrib.dvrp.vrpagent.TaskEndedEvent
2025-12-02T12:39:43,603  INFO EventsManagerImpl:139 === Logging of event-handlers skipped ===
2025-12-02T12:39:43,603  INFO EventsManagerImpl:140 To enable debug output, set an environment variable i.e. export LOG_LEVEL='debug', or set log.setLogLevel(Level.DEBUG) in your run class.
2025-12-02T12:39:43,604  INFO EventsManagerImpl:210     > org.matsim.contrib.dvrp.vrpagent.TaskStartedEvent
2025-12-02T12:39:43,604  INFO EventsManagerImpl:210     > org.matsim.contrib.dvrp.vrpagent.TaskEndedEvent
2025-12-02T12:39:43,604  INFO EventsManagerImpl:139 === Logging of event-handlers skipped ===
2025-12-02T12:39:43,604  INFO EventsManagerImpl:140 To enable debug output, set an environment variable i.e. export LOG_LEVEL='debug', or set log.setLogLevel(Level.DEBUG) in your run class.
2025-12-02T12:39:43,604  INFO EventsManagerImpl:210     > org.matsim.contrib.dvrp.vrpagent.TaskStartedEvent
2025-12-02T12:39:43,604  INFO EventsManagerImpl:210     > org.matsim.contrib.dvrp.vrpagent.TaskEndedEvent
2025-12-02T12:39:43,605  INFO EventsManagerImpl:139 === Logging of event-handlers skipped ===
2025-12-02T12:39:43,605  INFO EventsManagerImpl:140 To enable debug output, set an environment variable i.e. export LOG_LEVEL='debug', or set log.setLogLevel(Level.DEBUG) in your run class.
2025-12-02T12:39:43,605  INFO EventsManagerImpl:210     > org.matsim.contrib.drt.passenger.events.DrtRequestSubmittedEvent
2025-12-02T12:39:43,605  INFO EventsManagerImpl:210     > org.matsim.contrib.dvrp.passenger.PassengerPickedUpEvent
2025-12-02T12:39:43,605  INFO EventsManagerImpl:210     > org.matsim.contrib.dvrp.passenger.PassengerDroppedOffEvent
2025-12-02T12:39:43,605  INFO EventsManagerImpl:139 === Logging of event-handlers skipped ===
2025-12-02T12:39:43,605  INFO EventsManagerImpl:140 To enable debug output, set an environment variable i.e. export LOG_LEVEL='debug', or set log.setLogLevel(Level.DEBUG) in your run class.
2025-12-02T12:39:43,606  INFO EventsManagerImpl:210     > org.matsim.contrib.drt.passenger.events.DrtRequestSubmittedEvent
2025-12-02T12:39:43,606  INFO EventsManagerImpl:210     > org.matsim.contrib.dvrp.passenger.PassengerPickedUpEvent
2025-12-02T12:39:43,606  INFO EventsManagerImpl:210     > org.matsim.contrib.dvrp.passenger.PassengerDroppedOffEvent
2025-12-02T12:39:43,606  INFO EventsManagerImpl:139 === Logging of event-handlers skipped ===
2025-12-02T12:39:43,606  INFO EventsManagerImpl:140 To enable debug output, set an environment variable i.e. export LOG_LEVEL='debug', or set log.setLogLevel(Level.DEBUG) in your run class.
2025-12-02T12:39:43,606  INFO EventsManagerImpl:210     > org.matsim.contrib.dvrp.vrpagent.TaskStartedEvent
2025-12-02T12:39:43,607  INFO EventsManagerImpl:210     > org.matsim.contrib.dvrp.vrpagent.TaskEndedEvent
2025-12-02T12:39:43,607  INFO EventsManagerImpl:139 === Logging of event-handlers skipped ===
2025-12-02T12:39:43,607  INFO EventsManagerImpl:140 To enable debug output, set an environment variable i.e. export LOG_LEVEL='debug', or set log.setLogLevel(Level.DEBUG) in your run class.
2025-12-02T12:39:43,607  INFO EventsManagerImpl:210     > org.matsim.contrib.dvrp.vrpagent.TaskStartedEvent
2025-12-02T12:39:43,607  INFO EventsManagerImpl:210     > org.matsim.contrib.dvrp.vrpagent.TaskEndedEvent
2025-12-02T12:39:43,607  INFO Injector:86 === printInjector output skipped ===
2025-12-02T12:39:43,608  INFO Injector:87 To enable debug output, set an environment variable i.e. export LOG_LEVEL='debug', or set log.setLogLevel(Level.DEBUG) in your run class.
Dez. 02, 2025 12:39:43 PM com.google.inject.internal.util.LineNumbers <init>
WARNUNG: Failed loading line numbers. ASM is probably out of date. Further failures won't be logged.
java.lang.IllegalArgumentException: Unsupported class file major version 66
	at com.google.inject.internal.asm.$ClassReader.<init>(ClassReader.java:199)
	at com.google.inject.internal.asm.$ClassReader.<init>(ClassReader.java:180)
	at com.google.inject.internal.asm.$ClassReader.<init>(ClassReader.java:166)
	at com.google.inject.internal.asm.$ClassReader.<init>(ClassReader.java:287)
	at com.google.inject.internal.util.LineNumbers.<init>(LineNumbers.java:74)
	at com.google.inject.internal.util.StackTraceElements$1.load(StackTraceElements.java:48)
	at com.google.inject.internal.util.StackTraceElements$1.load(StackTraceElements.java:44)
	at com.google.common.cache.LocalCache$LoadingValueReference.loadFuture(LocalCache.java:3556)
	at com.google.common.cache.LocalCache$Segment.loadSync(LocalCache.java:2307)
	at com.google.common.cache.LocalCache$Segment.lockedGetOrLoad(LocalCache.java:2180)
	at com.google.common.cache.LocalCache$Segment.get(LocalCache.java:2071)
	at com.google.common.cache.LocalCache.get(LocalCache.java:3985)
	at com.google.common.cache.LocalCache.getOrLoad(LocalCache.java:4006)
	at com.google.common.cache.LocalCache$LocalLoadingCache.get(LocalCache.java:4946)
	at com.google.common.cache.LocalCache$LocalLoadingCache.getUnchecked(LocalCache.java:4953)
	at com.google.inject.internal.util.StackTraceElements.forMember(StackTraceElements.java:67)
	at com.google.inject.internal.ProviderMethod.toString(ProviderMethod.java:213)
	at com.google.inject.internal.InjectorImpl$1.toString(InjectorImpl.java:1159)
	at java.base/java.lang.String.valueOf(String.java:4507)
	at org.matsim.core.controler.Injector.printInjector(Injector.java:95)
	at org.matsim.core.controler.Injector.createInjector(Injector.java:80)
	at org.matsim.core.controler.Controler.createInjector(Controler.java:259)
	at org.matsim.core.controler.Controler.getInjector(Controler.java:398)
	at org.matsim.contrib.exmas.ModeComparisonTest.compareCarAndDrtRoutes(ModeComparisonTest.java:100)
	at java.base/jdk.internal.reflect.DirectMethodHandleAccessor.invoke(DirectMethodHandleAccessor.java:103)
	at java.base/java.lang.reflect.Method.invoke(Method.java:580)
	at org.junit.platform.commons.util.ReflectionUtils.invokeMethod(ReflectionUtils.java:701)
	at org.junit.platform.commons.support.ReflectionSupport.invokeMethod(ReflectionSupport.java:502)
	at org.junit.jupiter.engine.support.MethodReflectionUtils.invoke(MethodReflectionUtils.java:45)
	at org.junit.jupiter.engine.execution.MethodInvocation.proceed(MethodInvocation.java:61)
	at org.junit.jupiter.engine.execution.InvocationInterceptorChain$ValidatingInvocation.proceed(InvocationInterceptorChain.java:124)
	at org.junit.jupiter.engine.extension.TimeoutExtension.intercept(TimeoutExtension.java:163)
	at org.junit.jupiter.engine.extension.TimeoutExtension.interceptTestableMethod(TimeoutExtension.java:148)
	at org.junit.jupiter.engine.extension.TimeoutExtension.interceptTestMethod(TimeoutExtension.java:86)
	at org.junit.jupiter.engine.execution.InterceptingExecutableInvoker$ReflectiveInterceptorCall.lambda$ofVoidMethod$0(InterceptingExecutableInvoker.java:123)
	at org.junit.jupiter.engine.execution.InterceptingExecutableInvoker.lambda$invoke$0(InterceptingExecutableInvoker.java:105)
	at org.junit.jupiter.engine.execution.InvocationInterceptorChain$InterceptedInvocation.proceed(InvocationInterceptorChain.java:99)
	at org.junit.jupiter.engine.execution.InvocationInterceptorChain.proceed(InvocationInterceptorChain.java:66)
	at org.junit.jupiter.engine.execution.InvocationInterceptorChain.chainAndInvoke(InvocationInterceptorChain.java:47)
	at org.junit.jupiter.engine.execution.InvocationInterceptorChain.invoke(InvocationInterceptorChain.java:39)
	at org.junit.jupiter.engine.execution.InterceptingExecutableInvoker.invoke(InterceptingExecutableInvoker.java:104)
	at org.junit.jupiter.engine.execution.InterceptingExecutableInvoker.invoke(InterceptingExecutableInvoker.java:98)
	at org.junit.jupiter.engine.execution.InterceptingExecutableInvoker.invokeVoid(InterceptingExecutableInvoker.java:71)
	at org.junit.jupiter.engine.descriptor.TestMethodTestDescriptor.lambda$invokeTestMethod$0(TestMethodTestDescriptor.java:219)
	at org.junit.platform.engine.support.hierarchical.ThrowableCollector.execute(ThrowableCollector.java:74)
	at org.junit.jupiter.engine.descriptor.TestMethodTestDescriptor.invokeTestMethod(TestMethodTestDescriptor.java:215)
	at org.junit.jupiter.engine.descriptor.TestMethodTestDescriptor.execute(TestMethodTestDescriptor.java:157)
	at org.junit.jupiter.engine.descriptor.TestMethodTestDescriptor.execute(TestMethodTestDescriptor.java:70)
	at org.junit.platform.engine.support.hierarchical.NodeTestTask.lambda$executeRecursively$2(NodeTestTask.java:176)
	at org.junit.platform.engine.support.hierarchical.ThrowableCollector.execute(ThrowableCollector.java:74)
	at org.junit.platform.engine.support.hierarchical.NodeTestTask.lambda$executeRecursively$1(NodeTestTask.java:166)
	at org.junit.platform.engine.support.hierarchical.Node.around(Node.java:138)
	at org.junit.platform.engine.support.hierarchical.NodeTestTask.lambda$executeRecursively$0(NodeTestTask.java:164)
	at org.junit.platform.engine.support.hierarchical.ThrowableCollector.execute(ThrowableCollector.java:74)
	at org.junit.platform.engine.support.hierarchical.NodeTestTask.executeRecursively(NodeTestTask.java:163)
	at org.junit.platform.engine.support.hierarchical.NodeTestTask.execute(NodeTestTask.java:116)
	at java.base/java.util.ArrayList.forEach(ArrayList.java:1597)
	at org.junit.platform.engine.support.hierarchical.SameThreadHierarchicalTestExecutorService.invokeAll(SameThreadHierarchicalTestExecutorService.java:42)
	at org.junit.platform.engine.support.hierarchical.NodeTestTask.lambda$executeRecursively$2(NodeTestTask.java:180)
	at org.junit.platform.engine.support.hierarchical.ThrowableCollector.execute(ThrowableCollector.java:74)
	at org.junit.platform.engine.support.hierarchical.NodeTestTask.lambda$executeRecursively$1(NodeTestTask.java:166)
	at org.junit.platform.engine.support.hierarchical.Node.around(Node.java:138)
	at org.junit.platform.engine.support.hierarchical.NodeTestTask.lambda$executeRecursively$0(NodeTestTask.java:164)